Circuit: * D:\School\Circuit Theory\Draft1(1).asc

Direct Newton iteration for .op point succeeded.

Date: Sun May 29 11:23:07 2022
Total elapsed time: 0.016 seconds.

tnom = 27
temp = 27
method = modified trap
totiter = 2107
traniter = 2104
tranpoints = 1053
accept = 1051
rejected = 2
matrix size = 2
fillins = 0
solver = Normal
Matrix Compiler1: 36 bytes object code size  0.0/0.0/[0.0]
Matrix Compiler2: 96 bytes object code size  0.0/0.0/[0.0]

